/*--------------------------------*- C++ -*----------------------------------*\
| =========                 |                                                 |
| \\      /  F ield         | OpenFOAM: The Open Source CFD Toolbox           |
|  \\    /   O peration     | Version:  2112                                  |
|   \\  /    A nd           | Website:  www.openfoam.com                      |
|    \\/     M anipulation  |                                                 |
\*---------------------------------------------------------------------------*/
FoamFile
{
    version     2.0;
    format      binary;
    arch        "LSB;label=32;scalar=64";
    class       volScalarField;
    location    "0";
    object      epsilon;
}
// * * * * * * * * * * * * * * * * * * * * * * * * * * * * * * * * * * * * * //

dimensions      [0 2 -3 0 0 0 0];

internalField   uniform 30000;

boundaryField
{
    air_inlet
    {
        type            turbulentMixingLengthDissipationRateInlet;
        mixingLength    0.019677;
        value           uniform 1;
    }
    bottom_wall
    {
        type            epsilonWallFunction;
        Cmu             0.09;
        kappa           0.41;
        E               9.8;
        value           uniform 30000;
    }
    air_outer_wall
    {
        type            epsilonWallFunction;
        Cmu             0.09;
        kappa           0.41;
        E               9.8;
        value           uniform 30000;
    }
    air_inner_wall
    {
        type            epsilonWallFunction;
        Cmu             0.09;
        kappa           0.41;
        E               9.8;
        value           uniform 30000;
    }
    fuel_inlet
    {
        type            turbulentMixingLengthDissipationRateInlet;
        mixingLength    0.000504;
        phi             phi;
        k               k;
        value           uniform 1;
    }
    outer_wall
    {
        type            epsilonWallFunction;
        Cmu             0.09;
        kappa           0.41;
        E               9.8;
        value           uniform 30000;
    }
    outlet
    {
        type            inletOutlet;
        inletValue      uniform 30000;
        value           uniform 30000;
    }
    foil_wall
    {
        type            epsilonWallFunction;
        Cmu             0.09;
        kappa           0.41;
        E               9.8;
        value           uniform 30000;
    }
}


// ************************************************************************* //
