/*--------------------------------*- C++ -*----------------------------------*\
| =========                 |                                                 |
| \\      /  F ield         | OpenFOAM: The Open Source CFD Toolbox           |
|  \\    /   O peration     | Version:  2112                                  |
|   \\  /    A nd           | Website:  www.openfoam.com                      |
|    \\/     M anipulation  |                                                 |
\*---------------------------------------------------------------------------*/
// * * * * * * * * * * * * * * * * * * * * * * * * * * * * * * * * * * * * * //
FoamFile
{
    version         2;
    format          ascii;
    class           dictionary;
    object          chemistryProperties;
}

chemistryType
{
    solver          EulerImplicit;
}

chemistry       on;

initialChemicalTimeStep 1e-07;

EulerImplicitCoeffs
{
    cTauChem        1;
    equilibriumRateLimiter on;
}

odeCoeffs
{
    solver          Rosenbrock34;
    absTol          1e-12;
    relTol          1e-06;
}


// ************************************************************************* //
