/*--------------------------------*- C++ -*----------------------------------*\
| =========                 |                                                 |
| \\      /  F ield         | OpenFOAM: The Open Source CFD Toolbox           |
|  \\    /   O peration     | Version:  2112                                  |
|   \\  /    A nd           | Website:  www.openfoam.com                      |
|    \\/     M anipulation  |                                                 |
\*---------------------------------------------------------------------------*/
FoamFile
{
    version     2.0;
    format      binary;
    arch        "LSB;label=32;scalar=64";
    class       volScalarField;
    location    "0";
    object      O2;
}
// * * * * * * * * * * * * * * * * * * * * * * * * * * * * * * * * * * * * * //

dimensions      [0 0 0 0 0 0 0];

internalField   uniform 0.1966;

boundaryField
{
    air_inlet
    {
        type            fixedValue;
        value           uniform 0.23;
    }
    bottom_wall
    {
        type            zeroGradient;
    }
    air_outer_wall
    {
        type            zeroGradient;
    }
    air_inner_wall
    {
        type            zeroGradient;
    }
    fuel_inlet
    {
        type            fixedValue;
        value           uniform 0;
    }
    outer_wall
    {
        type            zeroGradient;
    }
    outlet
    {
        type            inletOutlet;
        inletValue      uniform 0.23;
        value           uniform 0.23;
    }
    foil_wall
    {
        type            zeroGradient;
    }
}


// ************************************************************************* //
